/*--------------------------------*- C++ -*----------------------------------*\
| =========                 |                                                 |
| \\      /  F ield         | OpenFOAM: The Open Source CFD Toolbox           |
|  \\    /   O peration     | Version:  v2312                                 |
|   \\  /    A nd           | Website:  www.openfoam.com                      |
|    \\/     M anipulation  |                                                 |
\*---------------------------------------------------------------------------*/
FoamFile
{
    version     2.0;
    format      ascii;
    class       volScalarField;
    object      omega;
}
// * * * * * * * * * * * * * * * * * * * * * * * * * * * * * * * * * * * * * //

#include        "include/initialConditions"

dimensions      [0 0 -1 0 0 0 0];

internalField   uniform 0.05;

boundaryField
{
/*    inletAir
    {
        type            inletOutlet;
        inletValue      $internalField;
        value           $internalField;
    }*/

    inlet
    {
        type            fixedValue;
        value           $internalField;
    }

    outlet
    {
        type            inletOutlet;
        inletValue      $internalField;
        value           $internalField;
    }

    wall
    {
        type            omegaWallFunction;
        value           $internalField;
    }

/*    sideWall
    {
        //type            symmetry;
        type            omegaWallFunction;
        value           $internalField;
    }

    atmosphere
    {
        type            inletOutlet;
        inletValue      $internalField;
        value           $internalField;
    }

    defaultFaces
    {
        type            empty;
    }*/
}


// ************************************************************************* //
