/*--------------------------------*- C++ -*----------------------------------*\
| =========                 |                                                 |
| \\      /  F ield         | OpenFOAM: The Open Source CFD Toolbox           |
|  \\    /   O peration     | Version:  v2506                                 |
|   \\  /    A nd           | Website:  www.openfoam.com                      |
|    \\/     M anipulation  |                                                 |
\*---------------------------------------------------------------------------*/

FoamFile
{
    version     2.0;
    format      ascii;
    class       dictionary;
    object      blockMeshDict;
}

// * * * * * * * * * * * * * * * * * * * * * * * * * * * * * * * * * * * * * //

convertToMeters 1;

vertices
(
    // z = -0.06
    (-0.8 -0.125 -0.06)  // 0
    ( 0.6 -0.125 -0.06)  // 1
    ( 0.6  0.125 -0.06)  // 2
    (-0.8  0.125 -0.06)  // 3

    // z = -0.03
    (-0.8 -0.125 -0.03)  // 4
    ( 0.6 -0.125 -0.03)  // 5
    ( 0.6  0.125 -0.03)  // 6
    (-0.8  0.125 -0.03)  // 7

    // z = 0.00
    (-0.8 -0.125  0.00)  // 8
    ( 0.6 -0.125  0.00)  // 9
    ( 0.6  0.125  0.00)  // 10
    (-0.8  0.125  0.00)  // 11

    // z = 0.03
    (-0.8 -0.125  0.03)  // 12
    ( 0.6 -0.125  0.03)  // 13
    ( 0.6  0.125  0.03)  // 14
    (-0.8  0.125  0.03)  // 15

    // z = 0.05
    (-0.8 -0.125  0.05)  // 16
    ( 0.6 -0.125  0.05)  // 17
    ( 0.6  0.125  0.05)  // 18
    (-0.8  0.125  0.05)  // 19
);

blocks
(
    // lower sediment: z = -0.06 ~ -0.03
    // dz = 0.03 / 12 = 0.0025 m
    hex (0 1 2 3 4 5 6 7)
    (140 25 12)
    simpleGrading (1 1 1)

    // upper sediment / expected scour zone: z = -0.03 ~ 0
    // dz = 0.03 / 30 = 0.001 m
    hex (4 5 6 7 8 9 10 11)
    (140 25 30)
    simpleGrading (1 1 1)

    // near-bed water layer: z = 0 ~ 0.03
    // dz = 0.03 / 30 = 0.001 m
    hex (8 9 10 11 12 13 14 15)
    (140 25 30)
    simpleGrading (1 1 1)

    // upper water layer: z = 0.03 ~ 0.05
    // dz = 0.02 / 10 = 0.002 m
    hex (12 13 14 15 16 17 18 19)
    (140 25 10)
    simpleGrading (1 1 1)
);

boundary
(
    inletSediment
    {
        type patch;
        faces
        (
            (0 4 7 3)      // z = -0.06 ~ -0.03
            (4 8 11 7)     // z = -0.03 ~ 0
        );
    }

    inletWater
    {
        type patch;
        faces
        (
            (8 12 15 11)   // z = 0 ~ 0.03
            (12 16 19 15)  // z = 0.03 ~ 0.05
        );
    }

    outletSediment
    {
        type patch;
        faces
        (
            (1 2 6 5)      // z = -0.06 ~ -0.03
            (5 6 10 9)     // z = -0.03 ~ 0
        );
    }

    outletWater
    {
        type patch;
        faces
        (
            (9 10 14 13)   // z = 0 ~ 0.03
            (13 14 18 17)  // z = 0.03 ~ 0.05

            (1 2 6 5)      // z = -0.06 ~ -0.03
            (5 6 10 9)     // z = -0.03 ~ 0
        );
    }

    sideWalls
    {
        type wall;
        faces
        (
            // y = -0.125
            (0 1 5 4)
            (4 5 9 8)
            (8 9 13 12)
            (12 13 17 16)

            // y = 0.125
            (3 7 6 2)
            (7 11 10 6)
            (11 15 14 10)
            (15 19 18 14)
        );
    }

    bottom
    {
        type wall;
        faces
        (
            (0 3 2 1)
        );
    }

    top
    {
        type wall;
        faces
        (
            (16 17 18 19)
        );
    }
);

mergePatchPairs
(
);
